7
Properties=species:S:1:pos:R:3:REF_forces:R:3 REF_energy=-4175.02281636429 free_energy=-4175.02281636429 pbc="F F F"
O       -0.24525292       0.92704947       0.70060630      -1.24617376      -1.33566316      -1.11247458
H        0.50572486       1.32109162       1.06381283       2.00650571       1.66705117       1.48318559
H       -1.11256270       1.27455707       0.89327293      -0.70724455       0.55316310       0.36071843
O        0.24664311      -0.93881000      -0.68037431       0.00843401      -0.26158960       0.08598420
H       -0.04364253       0.07101824       0.05101683      -0.11801426      -0.50234372      -0.52703518
H        1.06001929      -1.02699918      -1.19234993       0.44364574       0.08046412      -0.17566447
H       -0.43160411      -1.45300416      -1.13687519      -0.38715289      -0.20108192      -0.11471399
